Couple appeared not to mind being in full view at the Three Bridges playing fields in Crawley, West Sussex . 
  Workers at an office block said the pair did not even appear to be put off when people walked past them . 
  Temperature reached 25C in some parts of the UK as temperatures reached 25 . 
 1C at St James's Park in London . 
  It came on hottest day of the year and warmest April ever on record . 
  Northern parts of England will see temperatures of up to 12C today . 
 